#======================================================================

# CRYSTAL DATA

#----------------------------------------------------------------------

data_VESTA_phase_1


_chemical_name_common                  ''
_cell_length_a                         6.87683
_cell_length_b                         6.87683
_cell_length_c                         7.61845
_cell_angle_alpha                      90
_cell_angle_beta                       90
_cell_angle_gamma                      90
_space_group_name_H-M_alt              'P 1'
_space_group_IT_number                 1

loop_
_space_group_symop_operation_xyz
   'x, y, z'

loop_
   _atom_site_label
   _atom_site_occupancy
   _atom_site_fract_x
   _atom_site_fract_y
   _atom_site_fract_z
   _atom_site_adp_type
   _atom_site_B_iso_or_equiv
   _atom_site_type_symbol
   C1         1.0     0.000000      0.000000      0.602784     Biso  1.000000 C
   C2         1.0     0.000000      0.000000      0.102783     Biso  1.000000 C
   C3         1.0     0.500000      0.500000      0.602784     Biso  1.000000 C
   C4         1.0     0.500000      0.500000      0.102783     Biso  1.000000 C
   C5         1.0     0.741368      0.416683      0.385994     Biso  1.000000 C
   C6         1.0     0.258631      0.583317      0.385994     Biso  1.000000 C
   C7         1.0     0.583317      0.741368      0.885994     Biso  1.000000 C
   C8         1.0     0.416683      0.258631      0.885994     Biso  1.000000 C
   C9         1.0     0.241369      0.083317      0.385994     Biso  1.000000 C
   C10        1.0     0.758632      0.916683      0.385994     Biso  1.000000 C
   C11        1.0     0.083317      0.758632      0.885994     Biso  1.000000 C
   C12        1.0     0.916683      0.241369      0.885994     Biso  1.000000 C
   C13        1.0     0.804879      0.617104      0.764064     Biso  1.000000 C
   C14        1.0     0.195121      0.382896      0.764064     Biso  1.000000 C
   C15        1.0     0.382896      0.804879      0.264064     Biso  1.000000 C
   C16        1.0     0.617104      0.195121      0.264064     Biso  1.000000 C
   C17        1.0     0.304879      0.882896      0.764064     Biso  1.000000 C
   C18        1.0     0.695121      0.117104      0.764064     Biso  1.000000 C
   C19        1.0     0.882896      0.695121      0.264064     Biso  1.000000 C
   C20        1.0     0.117104      0.304879      0.264064     Biso  1.000000 C
